/*--------------------------------*- C++ -*----------------------------------*\
| =========                 |                                                 |
| \\      /  F ield         | OpenFOAM: The Open Source CFD Toolbox           |
|  \\    /   O peration     | Version:  v2412                                 |
|   \\  /    A nd           | Website:  www.openfoam.com                      |
|    \\/     M anipulation  |                                                 |
\*---------------------------------------------------------------------------*/
FoamFile
{
    version     2.0;
    format      ascii;
    class       dictionary;
    object      blockMeshDict;
}
// * * * * * * * * * * * * * * * * * * * * * * * * * * * * * * * * * * * * * //

scale   1; 

// Fin is at x=0 to 0.1397. 
// Box X: -1.033 to 2.2057 (Total 3.2387m)
// Box Y: -0.8264 to 0.8264 (Total 1.6528m)
// Box Z: 0 to 0.89625 (Total 0.89625m)

vertices
(
    (-1.0330 -0.8264  0.0000) // 0
    ( 2.2057 -0.8264  0.0000) // 1
    ( 2.2057  0.8264  0.0000) // 2
    (-1.0330  0.8264  0.0000) // 3
    (-1.0330 -0.8264  0.8963) // 4
    ( 2.2057 -0.8264  0.8963) // 5
    ( 2.2057  0.8264  0.8963) // 6
    (-1.0330  0.8264  0.8963) // 7
);

blocks
(
    hex (0 1 2 3 4 5 6 7) 
    (280 160 80) 
    simpleGrading 
    (
        
        ((0.30 0.3 4) (0.70 0.9 1))
        
        (
            (0.35 0.10 1)    
            (0.30 0.80 1)    
            (0.35 0.10 1)    
        )
        
        1
    )
);

edges ();

boundary
(
    inlet
    {
        type patch;
        faces ((0 3 7 4));
    }
    
    outlet
    {
        type patch;
        faces ((1 5 6 2));
    }

    walls
        {
            type patch;
            faces
            (
                (0 4 5 1) // Side
                (3 2 6 7) // Side
                (4 7 6 5) // Top
                (0 1 2 3) // Bottom (The missing piece!)
            );
        }
    );

// ************************************************************************* //